FoamFile
{
    version 2.0;
    format ascii;
    class dictionary;
    object fvSolution;
}

solvers
{
    T
    {
        solver PBiCG;
        preconditioner aDIC;
        tolerance 1e-12;
        relTol 0;
    }
}
